scripts/data/pwf/EMS_tales_sem_dcsc.PWF
TITU
PONTA - ONS - 3Q2021 - DEZEMBRO - Pesada RSUL                                   
DOPC IMPR
(Op) E (Op) E (Op) E (Op) E (Op) E (Op) E (Op) E (Op) E (Op) E (Op) E
QLIM L VLIM L CREM L CTAP L STEP L NEWT L RCVG L RMON L FILE L SUBS L
CONT L NOVO L CELO L MFCT L AREG L STPO L VLCR L CPHS L IANG L
99999
DCTE
(Mn) ( Val) (Mn) ( Val) (Mn) ( Val) (Mn) ( Val) (Mn) ( Val) (Mn) ( Val) 
BASE   100. DASE   100. TEPA    .01 EXST    .04 TETP     5. TBPA     5.
TLPP     1. TEPR    .01 QLST    .04 TLPR    .01 TLPQ     2. TSBZ    .01
TSBA     5. ASTP    .05 VSTP     5. TLVC    .05 TLTC    .01 TSFR  .1E-7
ZMAX   500. TLPV     .5 VDVM   200. VDVN    40. TUDC   .001 TADC    .01
PGER    30. TPST    .02 VFLD    70. ZMIN  .1E-4 HIST    470 LFIT     10
ACIT    100 LFCV      1 DCIT     10 VSIT     10 LPIT     50 LFLP     10
PDIT     10 LCRT    200 LPRT     60 CSTP     5. ASDC     1.
ICIT     50 DMAX      5 FDIV     2. ICMN    .05 VART     5. TSTP     32
ICMV     .5 APAS    90. CPAR    70. VAVT     2. VAVF     5. VMVF    15.
VPVT     2. VPVF     5. VPMF    10. VSVF    20. VINF     1. VSUP     1.
TLSI     0. NDIR    20. STTR     5. TRPT   100. STIR     1. BFPO     1.
LFPO     .1 TLMT     0. TLMF     0. TLMG     0. PARS    10.            
99999
DBAR
(Num)OETGb(   nome   )Gl( V)( A)( Pg)( Qg)( Qn)( Qm)(Bc  )( Pl)( Ql)( Sh)Are(Vf)M(1)(2)(3)(4)(5)(6)(7)(8)(9)(10
   10 L1 VANGRA1UNE001 5 965 13. 640. 13.5-211. 414.        32. 15.5     2511000                                   
   11 L1 VANGRA2UNE001 5 96513.51350.7.737-600. 600.                     2511000                                   
   12 L1 VLCBARRUHE005 5 99719.5 734.-140.-450. 350.                     2041000                                   
   13 L1 TLCBARRSIN000 5 986 15.   0.   0.   0.   0.                     2041000                                   
   14 L1 VFUNIL-UHE002 510034.11 138.-12.9-100. 100.                     2551000                                   
   16 L1 VFURNASUHE006 5 98016.2 851.-276.-300. 300.                     3521000                                   
   17 L1 TFURNASSIN000 5 9739.93   0.   0.   0.   0.                     3521000                                   
   18 L1 VITUMBIUHE005 5 98739.51596.-209.-455. 500.                     3511000                                   
   19 L1 TITUMBISIN000 5 99132.1   0.   0.   0.   0.                     3511000                                   
   20 L1 VMARIMBUHE006 5104128.11042.-112.-480. 480.                     3511000                                   
   21 L1 VMANSO-UHE003 5100059.4 132.-.028 -60.  63.                     4721000                                   
   22 L1 VM.MORAUHE005 5 97219.6 218.-83.2-100. 105.                     3521000                                   
   24 L1 VM.MORBUHE003 5 95019.7 126.2.375 -18. 46.5                     2081000                                   
   28 L1 VPCOLOMUHE003 5100936.7 230.-33.1 -75.  75.                     2081000                                   
   30 L1 VSCRU19UTE000 51006-1.1   0.   0.   0.   0.                     2541000                                   
   31 L1 VSCRU13UTE000 5 963-1.1   0.   0.   0.   0.                     2541000                                   
   32 L1 VSCRU16UTE002 510065.42 350.-6.11-180. 220.                     2541000                                   
   35 L1 VCORUMBUHE003 5 98738.9 267.-37.4-180. 180.                     5121000                                   
   36 L1 VS.MESAUHE002 5 981 45. 756.-160.-320. 320.                     5111000                                   
   37 L1 TS.MESASIN000 5 99739.5   0.   0.   0.   0.                     5111000                                   
   38 L1 NGRAJA2SIN001 51034 -4.   0.34.07-120. 200.                     2511000                                   
   41 L1 TVITOR2SIN001 510097.65   0.-8.75 -30.  60.                     3021000                                   
   44 L1 NGRAJA1SIN001 51033 -4.   0. 30.5-120. 200.                     2511000                                   
   46 L 08CAMPO-CER015 6113113.7                                         25210962                                  
   47 L1 TVITOR1SIN001 510107.65   0. -8.8 -30.  60.                     3021000                                   
   48 L1 QIBIUNASIN004 5 985-12.   0.-720.-720.1200.    86               2041000                                   
   50 L1 QTPRETOSIN001 51001-14.   0.83.65-180. 300.                     2011000                                   
   52 L  EP.ACU--RJ345 51001 17.                                         2521000                                   
   53 L1 QGNA1G-UTE002 5100021.3 454.-74.5-200. 374.                     2521000                                   
   54 L125GNA1V-UTE001 51000 20. 239.-61.9-241. 291.                     2521000                                   
   55 L  NBALTO-CER013 6115323.4                                         51310002                                  
   56 L  IIVAIP3-PR069 5 905-13.                                         20110001                                  
   57 L  IIVAIP2-PR069 5 853-13.                                         201 9601                                  
   58 L  UIVAIP2-PR000 61019-13.                                         201 9601                                  
   59 L  UIVAIP3-PR000 61015-13.                                         20110001                                  
   60 L  AF.IGUA-PR765 1 992-2.6                                         2011000                                   
   61 L  CFZ-500-PR500 31034-.65                                         1011000                                   
   62 L  AIV-FZ1CAP765 11025-13.                                         20110002                                  
   63 L  AIV-FZ2CAP765 11025-13.                                         20110002                                  
   64 L  AIV-FZ3CAP765 11022-13.                                         20110342                                  
   65 L  AIVAIPO-PR765 11028-9.2                                         2011000                                   
   66 L  BIVAIPA-PR525 21030-12.                                         10110001                                  
   67 L  IIVAIP1-PR069 5 898-13.                            .24   0.     20110001                                  
   68 L  UIVAIP1-PR000 61016-13.                                         20110001                                  
   69 L  AIV-IT1CAP765 11014-8.6                                         20110002                                  
   70 L  AIV-IT2CAP765 11014-8.6                                         20110002                                  
   71 L  AIV-IT3CAP765 11014-8.6                                         20110142                                  
   72 L  AITABER-SP765 11034-9.8                                         2011000                                   
   73 L  AIT-TP1CAP765 11006-9.1                                         20110001                                  
   74 L  AIT-TP2CAP765 11006-9.1                                         20110002                                  
   75 L  AIT-TP3CAP765 11004-9.1                                         20110002                                  
   76 L  ATPRETO-SP765 1 982-10.                                         2011000                                   
   77 L  CTPRETO-SP500 31060-7.5                                         2021000                                   
   78 L  ETPRETO-SP345 51015-14.                                         2041000                                   
   79 L  ITPRETO-SP069 6 866-7.4                                         20110001                                  
   80 L  UTPRET3-SP000 6 976-7.4                                         20110001                                  
   81 L  UTPRET4-SP000 6 980-14.                                         20110001                                  
   82 L  ETPRET2-SP345 51015-14.                                         2041000                                   
   84 L  GRESEN2-RJ138 51020-.67                                         2551000                                   
   85 L  CFOZ500-PR500 31053-1.5                            60.   0.     2411000                                   
   86 L  EIBIUNA-SP345 51025-12.                                         2041000                                   
   87 L  CRESEND-RJ500 310671.13                                         2511000                                   
   90 L  EVIANA--ES345 510249.29                                         3021010                                   
   91 L  NVIANT1-ES013 610217.23                                         3021010                                   
   92 L  CSB-SM1CAP500 3106629.9                                         51110002                                  
   93 L  CSB-SM2CAP500 3107530.9                                         51110002                                  
   94 L  CSB-SM3CAP500 3107830.6                                         51110002                                  
   95 L  NVIANT2-ES013 610217.22                                         3021010                                   
   96 L  NVIANT3-ES013 610217.21                                         3021000                                   
   99 L  CAS-AR1-SP500 31082 2.4                                         20210002                                  
  100 L  CMARIMB-MG500 3105822.3                                         3511000                                   
  101 L  CARARAQ-SP500 3105911.3                                         2021000                                   
  102 L  CP.CALD-MG500 310436.13                                         3511000                                   
  103 L  CCAMPIN-SP500 31058-4.2                                         2021000                                   
  104 L  CC.PAUL-SP500 310681.14                                         2021000                                   
  105 L  CANGRA--RJ500 310465.69                                         2511000                                   
  106 L  CADRIAN-RJ500 310591.31                                         2511000                                   
  107 L  CGRAJAU-RJ500 31062-.63                                         2511000                                   
  108 L  CS.JOSE-RJ500 31052 .75                                         2511000                                   
  109 L  CBYPSAD-RJ500 310591.31                                         2511000                                   
  110 L  UGR1T52-RJ000 61024 -4.                                         25110001                                  
  112 L  CBA-IB1-PR500 31087-20.                                         10110002                                  
  113 L  CBA-IB2-PR500 31087-20.                                         10110002                                  
  114 L  CBA-IT1-PR500 31088-20.                                         10110002                                  
  115 L  CBA-IT1CAP500 31099-33.                                         20210002                                  
  116 L  GIMBTAP-RJ138 5 995-3.8                                         2561000                                   
  118 L  UBANDT4-GO000 6 99729.2                                         51210001                                  
  119 L  NBANDT4-GO013 6 99729.2                                         5121000                                   
  120 L  EP.CALD-MG345 51054-.32                                         3521000                                   
  121 L  UPCAT51-MG000 6 913-1.8                                         35110002                                  
  122 L  CIBIUNA-SP500 31065-13.                                         2021000                                   
  123 L  ECAMPIN-SP345 51027-7.9                                         2041000                                   
  124 L  UCAMP51-SP000 61002-8.7                                         20210001                                  
  125 L  CIB-BA1CAP500 3 988-4.9                                         20210002                                  
  126 L  EGUARUL-SP345 51018-16.                                         2041000                                   
  127 L  EMO-RL1-SP345 51014-14.                                         20410002                                  
  128 L  EMO-RL2-SP345 51014-14.                                         20410152                                  
  129 L  EMOGI---SP345 51009-15.                                         2041000                                   
  130 L  CIB-BA2CAP500 3 988-4.9                                         20210002                                  
  131 L  EM.MORA-MG345 51015 14.                                         3521000                                   
  133 L  UADRT1A-RJ000 61023-2.2                                         25210001                                  
  134 L  ELCBARR-SP345 51014 15.                                         2041000                                   
  135 L  UJACT1A-RJ000 61009-4.3                                         25210001                                  
  136 L  EFURNAS-MG345 510229.93                                         3521000                                   
  137 L  UJACT2A-RJ000 61010-4.3                                         25210001                                  
  138 L  EITUTIN-MG345 51043.788                                         3521000                                   
  139 L  UADRT51-RJ000 61024.377                                         25110141                                  
  140 L  EADRIAN-RJ345 51020.246                                         2521000                                   
  141 L  UADRT53-RJ000 61032-.05                                         25110001                                  
  142 L  UADRT55-RJ000 61031 .01                                         25110601                                  
  143 L  UADRT2B-RJ000 61022-2.2                                         25210301                                  
  144 L  EJACARE-RJ345 51019-1.7                                         2521000                                   
  145 L  UADRT1B-RJ000 61023-2.3                                         25210001                                  
  146 L  UADRT2A-RJ000 61022-2.2                                         25210001                                  
  147 L  ECAMPOS-RJ345 5105613.7                                         2521000                                   
  148 L  UCAMPO1-RJ000 610109.55                                         25210001                                  
  149 L  EVITORI-ES345 510257.65                                         3021000                                   
  150 L  UVITAT1-ES000 610195.16                                         30210001                                  
  152 L  UVITAT2-ES000 610195.18                                         30210001                                  
  153 L  UVITAT3-ES000 610195.06                                         30210001                                  
  154 L  NVITAT2-ES013 610195.18                                         3021000                                   
  155 L  NVITAT3-ES013 610195.06                                         3021000                                   
  156 L  NVITAT4-ES013 610195.29                                         3021000                                   
  158 L  UVITAT4-ES000 610195.29                                         30210001                                  
  159 L  NJA-R30-RJ013 61010-4.3                                         2521000                                   
  160 L  NJB-R60-RJ013 61009-4.4                                         2521000                                   
  161 L  FMO-FCE-SP230 51021-15.                                         2051000                                   
  162 L  UCAMAT1-SP000 61012-10.                                         20710001                                  
  163 L  NCAMPI1-SP013 61012-10.                                         2071000                                   
  164 L  UPCAT02-MG000 61025-2.7                                         35210001                                  
  165 L  NP.CAL2-MG013 6 962-2.7                                         3521000                                   
  166 L  UJACT1B-RJ000 61009-4.4                                         25210001                                  
  167 L  NJA-R60-RJ013 61009-4.3                                         2521000                                   
  169 L  GSJOSE2-RJ138 51000-.76                                         2541000                                   
  170 L  GP.CALD-MG138 51041-2.4                                         3591000                                   
  171 L  GCAMPI1-SP138 5 985-10.                           1.01   0.     2071000                                   
  172 L  GIMBARE-RJ138 5 985-2.6                                         2561000                                   
  173 L  GADRIAN-RJ138 51004-2.2                                         2561000                                   
  174 L  GR.LEAO-RJ138 51012-3.6                                         2581000                                   
  175 L  GCAMPOS-RJ138 510179.72                            .25   0.     2591000                                   
  176 L  UCAMP54-SP000 61003-8.5                                         20210001                                  
  177 L  GVITOR1-ES138 510105.43                                         3041000                                   
  178 L  GGRAJAU-RJ138 51010-3.8                                         2541000                                   
  179 L  UGR2T54-RJ000 61024 -4.                                         25110001                                  
  180 L  GJACAR2-RJ138 51010-4.2                                         2541000                                   
  181 L  GANGDEF-RJ138 51000 -.9                                         2551037                                   
  182 L  GFUNIL--RJ138 51013-.32                                         2551000                                   
  183 L  GC.PAUL-SP138 5 977.286                                         2141000                                   
  184 L  GS.CRUZ-RJ138 51015-1.1                                         2541000                                   
  185 L  GANGRA--RJ138 510058.73                             3.   0.     2551000                                   
  186 L  NCAMP54-SP013 61003-8.5                                         2021000                                   
  187 L  GM.MORA-MG138 5102612.9                                         3581000                                   
  189 L  UBGERT1-DF000 6100525.6                                         56310001                                  
  190 L  GP.COL--MG138 5102930.9                                         2081000                                   
  192 L  NCAMPO1-RJ013 610109.55                                         2521000                                   
  194 L  NADRT55-RJ013 61031 .01                                         2511080                                   
  195 L  NADRT53-RJ013 61032-.05                                         2511000                                   
  196 L  NCAMP51-SP013 61002-8.7                                         2021000                                   
  197 L  NADRT51-RJ013 61024.377                                         2511014                                   
  198 L  NPCALAT-MG013 6 913-1.8                                         3511000                                   
  199 L  NVITAT1-ES013 610195.16                                         3021000                                   
  200 L  UUCAMP1-RJ000 6 9926.19                                         25910001                                  
  201 L1 VRSIL-1UTE001 5 992 5.8   0.   0.   0.   0.       1.16   0.     2591000                                   
  202 L  UUCAMP2-RJ000 6 9926.19                                         25910001                                  
  203 L1 VRSIL-2UTE001 5 992 5.8   0.   0.   0.   0.       1.16   0.     2591000                                   
  204 L  NADRT1B-RJ013 61023-2.3                                         2521000                                   
  205 L  NADRT2A-RJ013 61066-2.2                                         2521000                                   
  206 L  NADRT2B-RJ013 61067-2.2                                         2521030                                   
  208 L  NBGERT1-DF013 6100525.6                                         5631000                                   
  209 L  NADRT1A-RJ013 61023-2.2                                         2521000                                   
  210 L  CITUMBI-MG500 3106332.1                                         3511000                                   
  211 L  UCAMPO2-RJ000 610109.44                                         25210001                                  
  212 L  NCAMPO2-RJ013 610109.44                                         2521000                                   
  213 L  EMARIMB-MG345 5103021.8                                         3521000                                   
  214 L  UMARIMB-MG000 6102921.7                                         35110001                                  
  216 L  EP.COL--MG345 5101821.3                                         3521000                                   
  217 L  EITUMBI-MG345 5101632.1                                         3521000                                   
  218 L  EBANDEI-GO345 5100830.5                                         5121000                                   
  219 L  EB.SUL--DF345 5102832.3                                         5621000                                   
  220 L  ECORUMB-GO345 5102734.2                                         5121000                                   
  221 L  LB.GERA-DF034 5100425.8                                         564 991                                   
  222 L  UBSULT6-DF000 6103330.2                                         56210001                                  
  223 L  UBANDT1-GO000 6 99729.1                                         51210001                                  
  224 L  UBANDT2-GO000 6 996 29.                                         512 9871                                  
  225 L  FITUMBI-MG230 5104033.3                                         3531000                                   
  226 L  FBANDEI-GO230 5102329.3                                         5131000                                   
  227 L  FB.GERA-DF230 5103230.3                                         5631000                                   
  228 L  FB.SUL--DF230 5103230.6                                         5631000                                   
  229 L  FB.ALTO-GO230 5104323.4                                         5131000                                   
  230 L  FS.MESA-GO230 5 96839.2                                         5131000                                   
  231 L  FR.VERD-GO230 5103935.8                                         5131000                                   
  232 L  NBSULT6-DF013 6103330.2                                         5621000                                   
  233 L  CSAMAMB-DF500 3106834.8                                         5611000                                   
  234 L  ESAMAMB-DF345 5103033.1                                         5621000                                   
  235 L  CS.MESA-GO500 3105639.5                                         5111000                                   
  236 L  GB.SUL--DF138 5102328.8                            .81   0.     5641000                                   
  237 L  GSAMAMB-DF138 5100131.2                                         5641000                                   
  238 L  GR.VERD-GO138 5103034.8                            .13   0.     5171000                                   
  239 L  GS.MESA-GO138 5104337.1                                         5181000                                   
  240 L  URVERT1-GO000 6 99534.7                                         51310001                                  
...
99999
DLIN
(De )d O d(Pa )NcEP ( R% )( X% )(Mvar)(Tap)(Tmn)(Tmx)(Phs)(Bc  )(Cn)(Ce)Ns(Cq)(1)(2)(3)(4)(5)(6)(7)(8)(9)(10
   38       17954         3.0195         1.                     200.200.  200.                                
   44       11052             3.         1.                     200.200.  200.                                
   50        81 4          2.498         1.                     500.500.  500.                                
   52       147 1      .16 1.64627.714                          10581539  1539                                
   52       147 2      .16 1.64627.714                          10581539  1539                                
   53        52 1          1.628      1.014                     10351242  1449                                
   54        52 1          2.186      1.014                     560.672.  784.                                
   56        59 3          3.385         1.                     550.550.  251.                                
   57        58 2          3.606         1.                     550.550.   73.                                
   60        62 1     .076  1.85 927.8                          41334174  4174                                
   60        63 2     .076  1.85 929.1                          41334174  4174                                
   60        64 3     .082 1.899954.57                          41334174  4174                                
   60     43810 2           .806      .9524                     16501815  1880                                
   60     43862 1           .743      .9524                     16501815  1880                                
   60     43899 3            .74      .9524                     16501815  1880                                
   60     43915 4           .746      .9524                     16501815  1880                                
   60     43921 5           .731      .9524                     16501980  2309                                
   61     43421 1    .11781.9883257.72                          30963622  3622                                
   61     43422 2    .11781.9883257.72                          30963622  3622                                
   61     43810 2          -.164         1.                     16501815  1880                                
   61     43862 1          -.121         1.                     16501815  1880                                
   61     43899 3          -.117         1.                     16501815  1880                                
   61     43915 4          -.123         1.                     16501815  1880                                
   61     43921 5          -.114         1.                     16501980  2309                                
   65        58 2           .823         1.                     16501815  1815                                
   65        59 3           .773         1.                     16501831  1897                                
   65        68 1           .843         1.                     16501815  1995                                
   66        68 1           -.17      1.017 .8381.053        99916501815321995                                
   67        68 1          3.649         1.                     550.550.  1650                                
   72        69 1     .064  1.53  760.                          41334174  4174                                
   72        70 2     .063  1.53 755.7                          41334174  4174                                
   72        71 3     .064  1.54  760.                          41334174  4174                                
   76        73 1     .072  1.75 877.5                          41334174  4174                                
   76        74 2     .072  1.75  873.                          41334174  4174                                
   76        75 3 T   .078  1.79 898.2                          41334174  4174                                
   76        80 3           .697         1.                     16501815  1995                                
   76        81 4          1.028         1.                     15001650  1650                                
   76     41512 5           .993         1.                     15001650  1650                                
   76     41514 6           .983         1.                     15001650  1650                                
   76     41516 7           .931         1.                     15001800  1800                                
   76     41518 1           .839         1.                     16501650  1650                                
   76     41520 2           .817         1.                     16501815  1815                                
   77        80 3           -.03      1.087  .88 1.16         7716501815321995                                
   77       104 1 T   .167  2.54 216.6                          18552337  2337                                
   77       598 1 T   .106 1.441 133.4                          18552252  2252                                
   77      3383 1     .115 1.712259.01                          27282728  2728                                
   77     41518 1          -.165      1.087  .88 1.16         7716501650  1650                                
   77     41520 2          -.162      1.087  .88 1.16         7716501815  1815                                
   78        81 4          -.107      1.035 .8591.115         7815001650321650                                
   78        86 2 T   .187 2.602  60.1                          12801613  1613                                
   78       449 1 T  .0742 .6448 11.34                          11841184  1392                                
   78       449 2 T  .0742 .6448 11.34                          11841184  1392                                
   78       464 3 T  .1089  .97317.073                          912.1103  1103                                
   78       471 1    .0922 .8014 14.08                          11841392  1392                                
   78       471 2    .0922 .8014 14.08                          11841392  1392                                
   78     41512 5          -.093      1.035 .8591.115         7815001650  1650                                
   78     41820 1     .001  .001                                99999999  9999                                
   78     41823 1     .001  .001                                99999999  9999                                
   79        80 3          3.545         1.                     550.550.  550.                                
   82        86 1     .187 2.602  60.1                          12801613  1613                                
   82       449 3 T    .06   .6312.845                          13501350  1350                                
   82       449 4 T    .06   .6312.845                          13501350  1350                                
   82     41514 6          -.092      1.045 .8591.115         8215001650  1650                                
   82     41516 7          -.058      1.045 .8591.115         8215001800  1800                                
   82     41821 1     .001  .001                                99999999  9999                                
   82     41822 1     .001  .001                                99999999  9999                                
   84      1780 1       .7  1.78  .454                          120.120.  120.                                
   84      1780 2       .7  1.78  .454                          120.120.  120.                                
   84     11797 1      .32  .815 .2079                          122.130.  122.                                
   84     21797 1      .32  .815 .2079                          122.130.  122.                                
   84     42417 1     .004-1.667         1.                     300.359.  419.                                
   85      1103 3 T  .0058.1006910.041                          27283377  3377                                
   85      1103 4 T .00564.09795 9.691                          27283377  3377                                
   86        48 1         .71475      1.013                     10501050  1050                                
   86       488 1    .09481.4987 41.91                          20202390  2390                                
   86       488 2    .09481.4987 41.91                          20202390  2390                                
   86     41522 1           -.25      1.048 .8951.048       -122750.750.  750.                                
   86     41524 2          -.254      1.048 .8951.048       -122750.750.  750.                                
   86     41526 3           .236      1.048 .8951.048       -122750.900.  1050                                
   87     42417 1     .121 4.833       1.04   .9  1.1        -84300.359.21419.                                
   87     42426 1          8.333         1.                     150.180.  180.                                
   87     42428 2         11.458         1.                     120.144.  144.                                
   90      2608 1          4.847      1.005                     225.270.  304.                                
   90      2618 2          4.861      1.005                     225.270.  304.                                
   90      2628 3           4.65      1.005                     225.270.  304.                                
   90      3032 1 T   .225 2.46841.546                          717.717.  717.                                
   90     42441 4          3.081      1.005                     400.480.  560.                                
   91      2608 1            9.7         1.                      75. 75.   75.                                
   95      2618 2          9.773         1.                      75. 75.   75.                                
   96      2628 3           9.83         1.                      75. 75.   75.                                
   99       101 1     .198 3.098317.55                          20012001  2001                                
   99       556 1     .001  .001       1.05                     99999999  9999                                
  100        20 1          1.053         1.                     16201620  1620                                
  100       214 9          2.979      1.021  .95 1.05       -213560.717.32717.                                
  100       535 1 T   .153 2.356 203.8                          17321732  1732                                
  100      3110 1    .12531.8381160.42                          19922390  2390                                
  100      4598 1     .006  .097   7.4                          18552337  2337                                
  100      4598 2     .006  .086   7.2                          18552337  2337                                
  100      4598 3    .0064 .08247.1767                          19922390  2390                                
  101       102 1     .156  2.46 208.5                          18552337  2337                                
  101       103 1      .15  2.39 202.6                          18552337  2337                                
  102       12151          2.911       1.05                     560.717.  717.                                
  102      1503 1     .129 1.993 167.7                          18552337  2337                                
  103       12451          2.946       1.05                     560.717.  717.                                
  103       17654         2.9116       1.05                     560.728.  728.                                
  103       609 1      .06  .946 76.26                          18552337  2337                                
  103      6609 1     .024  .368  31.7                          18552337  2337                                
  103      6609 2     .017  .26738.833                          24773464  3464                                
  104        87 1     .051  .782  66.5                          18552337  2337                                
  104       598 1     .075  1.15  98.9                          18552252  2252                                
  104       609 1     .148 2.347193.31                          18552337  2337                                
  104      1503 1     .052  .792  66.5                          18552337  2337                                
  104      3010 1     .189 3.162709.73                          24423464  3464                                
  104      3010 2     .189 3.162709.73                          24423464  3464                                
  104      3383 1     .014  .204 30.71                          27282728  2728                                
  104      9626 1     .098  1.68252.04                          24732598  2598                                
  104     4166457         4.7375       1.05                     250.263.  270.                                
  104     4166659         4.9492       1.05                     250.270.  283.                                
  105        10 1           1.97      1.075                     777.777.  777.                                
  105        11 1            .95      1.075                     14771477  1477                                
  105       104 1 T   .093 1.456122.54                          18552337  2337                                
  105      9601 1     .092 1.363115.34                          18552337  2337                                
  105      9608 1 T   .101 1.518127.82                          18552337  2337                                
  105     4240158          3.988       1.05                     400.400.  400.                                
  106       108 1     .019  .389  42.1                          25982598  2598                                
  106       109 1     .001  .001                                99999999  9999                                
  106       13951          1.962       1.05                     560.644.  672.                                
  106       14153          3.042       1.05                     560.672.  784.                                
  106       14255           2.93       1.05                     560.716.  716.                                
  107       11052          2.141       1.05                     600.720.  840.                                
  107       17954           2.15       1.05                     600.720.  840.                                
  107     4240756          2.142       1.05                     600.720.  840.                                
  107     4240858          2.114       1.05                     600.720.  840.                                
  108     4243111          2.327       1.05                     600.660.  684.                                
  108     4243212            2.3       1.05                     600.660.  684.                                
  108     4243313           2.27       1.05                     600.720.  840.                                
  108     4243414          2.288       1.05                     600.720.  840.                                
  109       107 1 T   .033  .67372.576                          25982598  2598                                
  109      9626 1     .012  .19329.698                          24732598  2598                                
  112       895 1     .001  .001       1.05                     99999999  9999                                
  113       895 2     .001  .001       1.05                     99999999  9999                                
  114       895 1     .001  .001       1.05                     99999999  9999                                
  115      6609 1     .263  4.25  659.                          29093667  3667                                
  116       172 1D    .125  .722  .207                          145.145.  145.                                
  116       173 1 T   .625 3.608 1.033                          153.193.  146.                                
  119       118 4         15.049         1.                      75. 75.   75.                                
  120       12151          -.522       1.111.009 1.11        120560.717.10717.                                
  120       126 1       .6  5.95  92.8                          776.977.  977.                                
  120       126 2     .606  6.02  93.8                          776.977.  977.                                
  120       164 2          8.275       .957                     150.160.  160.                                
  120       697 1     .394  4.39 74.85                          853.1075  1075                                
  120     42000 1          7.754         1.                     150.160.  160.                                
  120     42002 3          8.027         1.                     150.161.  161.                                
  120     42004 4            7.2         1.                     150.150.  150.                                
  120     42006 5           4.54         1.                     225.270.  315.                                
  120     42008 6          4.556         1.                     225.270.  315.                                
  122      6609 1     .079 1.214 103.2                          18552337  2337                                
  122     41522 1         1.8016       1.05                     750.750.  750.                                
  122     41524 2         1.7995       1.05                     750.750.  750.                                
  122     41526 3         1.2804       1.05                     750.900.  1050                                
  123       120 1 T   .359 3.945  66.7                          853.1075  1075                                
  123       12451          -.528      1.024  .95 1.11        123560.717.17717.                                
  123       162 1          5.563      1.004                     149.176.  176.                                
  123       17654          -.413      1.024  .95 1.11        123560.728.17728.                                
  123     41504 2            5.6      1.004                     149.176.  176.                                
  123     41505 3         6.0166      1.004                     149.176.  181.                                
  123     41506 4         5.6033      1.004                     149.176.  181.                                
  123     41507 5           5.63      1.004                     149.194.  194.                                
  125       112 1     .308 3.958444.84                          12992251  2251                                
  126        86 1     .109 1.826  51.2                          17072150  2150                                
  126        86 2     .109 1.824  51.2                          17072150  2150                                
  126       123 1     .252 2.761  46.5                          853.1075  1075                                
  126       442 1     .116 1.13217.708                          776.977.  977.                                
  129       442 1     .067   .66  10.1                          776.956.  956.                                
  129     41660 1          2.436         1.                     500.590.  615.                                
  129     41662 2          2.339         1.                     500.590.  615.                                
  130       113 2     .308 3.958444.84                          12992251  2251                                
  131        22 1          4.432         1.                     378.378.  378.                                
  131      3012 1     .038  .427 6.673                          853.1075  1075                                
  131     4202211          2.686         1.                     400.480.  560.                                
  131     4202413          2.526         1.                     400.480.  560.                                
  134        12 1          1.068       .999                     11801180  1180                                
  134        13 1           2.67       .999                     99999999  9999                                
  134       120 1      .56  6.16 105.3                          853.1075  1075                                
  134       120 2      .55  6.13 107.7                          853.1075  1075                                
  134      3012 1     .071  .75512.922                          853.1075  1075                                
  134      3012 2     .071  .75512.792                          853.1075  1075                                
  136        16 1           1.28         1.                     12801280  1280                                
  136        17 1           3.84         1.                     99999999  9999                                
  136       120 1 T    .44   4.3  66.6                          776.977.  977.                                
  136       120 2 T    .44  4.33  66.6                          776.977.  977.                                
  136       131 1     .358 3.38352.966                          776.956.  956.                                
  136       138 1      .65  6.46 100.8                          776.977.  977.                                
  136       367 1 T    .22  2.18  33.4                          776.977.  977.                                
  136       367 2 T    .18  1.7934.299                          11321132  1132                                
  136      4360 1     .461 5.152  83.6                          853.1075  1075                                
  138       331 1    .42234.086273.673                          11591159  1159                                
  140       13311          4.678      1.004                     225.225.  225.                                
  140       138 1 T   .651 6.497101.31                          776.896.  896.                                
  140       138 2 T   .651 6.497101.31                          853.896.  896.                                
...
99999
DBSH
(NFr) O (NTo) Nc C (Vmn (Vmx Bctrl (Qini) T A (Extr
   56            D 0800 1200    56  -360. C         
(G  O E (U) UOp (Sht ) M
10        2   2  -180. S
FBAN
(NFr) O (NTo) Nc C (Vmn (Vmx Bctrl (Qini) T A (Extr
   57            D 0800 1200    57  -540. C         
(G  O E (U) UOp (Sht ) M
10        3   3  -180. S
FBAN
(NFr) O (NTo) Nc C (Vmn (Vmx Bctrl (Qini) T A (Extr
   60      62  1 F 0900 1046    60  -330. C      60 
(G  O E (U) UOp (Sht ) M
10        1   1  -330. N
FBAN
(NFr) O (NTo) Nc C (Vmn (Vmx Bctrl (Qini) T A (Extr
   60      63  2 F 0900 1046    60  -330. C      60 
(G  O E (U) UOp (Sht ) M
10        1   1  -330. N
FBAN
(NFr) O (NTo) Nc C (Vmn (Vmx Bctrl (Qini) T A (Extr
   60      64  3 F 0900 1046    60  -330. C      60 
(G  O E (U) UOp (Sht ) M
10        1   1  -330. N
FBAN
(NFr) O (NTo) Nc C (Vmn (Vmx Bctrl (Qini) T A (Extr
   60      62  1 F 0900 1046    62  -150. C      62 
(G  O E (U) UOp (Sht ) M
10        1   1  -150. N
FBAN
(NFr) O (NTo) Nc C (Vmn (Vmx Bctrl (Qini) T A (Extr
   60      63  2 F 0900 1046    63  -150. C      63 
(G  O E (U) UOp (Sht ) M
10        1   1  -150. N
FBAN
(NFr) O (NTo) Nc C (Vmn (Vmx Bctrl (Qini) T A (Extr
   60      64  3 F 0900 1046    64  -150. C      64 
(G  O E (U) UOp (Sht ) M
10        1   1  -150. N
FBAN
(NFr) O (NTo) Nc C (Vmn (Vmx Bctrl (Qini) T A (Extr
   65            D 0900 1100    65  -330. C         
(G  O E (U) UOp (Sht ) M
10        1   1  -330. S
FBAN
(NFr) O (NTo) Nc C (Vmn (Vmx Bctrl (Qini) T A (Extr
   67            D 0800 1200    67  -360. C         
(G  O E (U) UOp (Sht ) M
10        3   2  -180. S
FBAN
(NFr) O (NTo) Nc C (Vmn (Vmx Bctrl (Qini) T A (Extr
   72      69  1 F 0900 1046    69  -330. C      69 
(G  O E (U) UOp (Sht ) M
10        1   1  -330. N
FBAN
(NFr) O (NTo) Nc C (Vmn (Vmx Bctrl (Qini) T A (Extr
   72      70  2 F 0900 1046    70  -330. C      70 
(G  O E (U) UOp (Sht ) M
10        1   1  -330. N
FBAN
(NFr) O (NTo) Nc C (Vmn (Vmx Bctrl (Qini) T A (Extr
   72      71  3 F 0900 1046    71  -330. C      71 
(G  O E (U) UOp (Sht ) M
10        1   1  -330. N
FBAN
(NFr) O (NTo) Nc C (Vmn (Vmx Bctrl (Qini) T A (Extr
   72            D 0900 1100    72  -660. C         
(G  O E (U) UOp (Sht ) M
10        2   2  -330. S
FBAN
(NFr) O (NTo) Nc C (Vmn (Vmx Bctrl (Qini) T A (Extr
   72      69  1 F 0900 1046    72  -330. C      72 
(G  O E (U) UOp (Sht ) M
10        1   1  -330. N
FBAN
(NFr) O (NTo) Nc C (Vmn (Vmx Bctrl (Qini) T A (Extr
   72      70  2 F 0900 1046    72  -330. C      72 
(G  O E (U) UOp (Sht ) M
10        1   1  -330. N
FBAN
(NFr) O (NTo) Nc C (Vmn (Vmx Bctrl (Qini) T A (Extr
   72      71  3 F 0900 1046    72  -330. C      72 
(G  O E (U) UOp (Sht ) M
10        1   1  -330. N
FBAN
(NFr) O (NTo) Nc C (Vmn (Vmx Bctrl (Qini) T A (Extr
   76      73  1 F 0900 1046    76  -330. C      76 
(G  O E (U) UOp (Sht ) M
10        1   1  -330. N
FBAN
(NFr) O (NTo) Nc C (Vmn (Vmx Bctrl (Qini) T A (Extr
   76      74  2 F 0900 1046    76  -330. C      76 
(G  O E (U) UOp (Sht ) M
10        1   1  -330. N
FBAN
(NFr) O (NTo) Nc C (Vmn (Vmx Bctrl (Qini) T A (Extr
   76      75  3 F 0900 1046    76  -330. C      76 
(G  O E (U) UOp (Sht ) M
10        1   1  -330. N
FBAN
(NFr) O (NTo) Nc C (Vmn (Vmx Bctrl (Qini) T A (Extr
   79            D 0800 1200    79  -360. C         
(G  O E (U) UOp (Sht ) M
10        2   2  -180. S
FBAN
(NFr) O (NTo) Nc C (Vmn (Vmx Bctrl (Qini) T A (Extr
   85            F 0950 1050    85  1540. C         
(G  O E (U) UOp (Sht ) M
10        3   3   280. S
20        2   2   350. S
FBAN
(NFr) O (NTo) Nc C (Vmn (Vmx Bctrl (Qini) T A (Extr
   86            F 0950 1050    86 1566.6 C         
(G  O E (U) UOp (Sht ) M
10        2   2    59. S
20        3   2  220.8 S
30        4   3   237. S
40        1   0  279.8 S
50        2   0   294. S
60        2   1   296. S
FBAN
(NFr) O (NTo) Nc C (Vmn (Vmx Bctrl (Qini) T A (Extr
   90    3032  1 D 0950 1050    90   -60. C      90 
(G  O E (U) UOp (Sht ) M
10        1   1   -60. S
FBAN
(NFr) O (NTo) Nc C (Vmn (Vmx Bctrl (Qini) T A (Extr
  235      92  1 F 1000 1100    92   -73. C      92 
(G  O E (U) UOp (Sht ) M
10        1   1   -73. N
FBAN
(NFr) O (NTo) Nc C (Vmn (Vmx Bctrl (Qini) T A (Extr
  235      93  2 F 1000 1100    93  -136. C      93 
(G  O E (U) UOp (Sht ) M
10        1   1  -136. N
FBAN
(NFr) O (NTo) Nc C (Vmn (Vmx Bctrl (Qini) T A (Extr
  235      94  3 F 1000 1100    94  -136. C      94 
(G  O E (U) UOp (Sht ) M
10        1   1  -136. N
FBAN
(NFr) O (NTo) Nc C (Vmn (Vmx Bctrl (Qini) T A (Extr
   99     101  1 F 0950 1048    99        C      99 
(G  O E (U) UOp (Sht ) M
10        1   0  -90.7 S
FBAN
(NFr) O (NTo) Nc C (Vmn (Vmx Bctrl (Qini) T A (Extr
  100    4598  2 F 1000 1100   100  -100. C     100 
(G  O E (U) UOp (Sht ) M
10        1   1  -100. S
FBAN
(NFr) O (NTo) Nc C (Vmn (Vmx Bctrl (Qini) T A (Extr
  100    4598  3 D 1000 1100   100  -100. C     100 
(G  O E (U) UOp (Sht ) M
10        1   1  -100. S
FBAN
(NFr) O (NTo) Nc C (Vmn (Vmx Bctrl (Qini) T A (Extr
  210     100  1 D 1000 1100   100  -100. C     100 
(G  O E (U) UOp (Sht ) M
10        1   1  -100. S
FBAN
(NFr) O (NTo) Nc C (Vmn (Vmx Bctrl (Qini) T A (Extr
  101     102  1 F 1000 1100   101   -73. C     101 
(G  O E (U) UOp (Sht ) M
10        1   1   -73. N
FBAN
(NFr) O (NTo) Nc C (Vmn (Vmx Bctrl (Qini) T A (Extr
   99     101  1 F 1000 1100   101 -73.47 C     101 
(G  O E (U) UOp (Sht ) M
10        1   1 -73.47 N
FBAN
(NFr) O (NTo) Nc C (Vmn (Vmx Bctrl (Qini) T A (Extr
  101     103  1 F 1000 1100   101   -73. C     101 
(G  O E (U) UOp (Sht ) M
10        1   1   -73. N
FBAN
(NFr) O (NTo) Nc C (Vmn (Vmx Bctrl (Qini) T A (Extr
 4598     101  1 F 1000 1100   101   -73. C     101 
(G  O E (U) UOp (Sht ) M
10        1   1   -73. N
FBAN
(NFr) O (NTo) Nc C (Vmn (Vmx Bctrl (Qini) T A (Extr
 4598     101  2 F 1000 1100   101   -73. C     101 
(G  O E (U) UOp (Sht ) M
10        1   1   -73. N
FBAN
(NFr) O (NTo) Nc C (Vmn (Vmx Bctrl (Qini) T A (Extr
  102    1503  1 F 1000 1100   102  -136. C     102 
(G  O E (U) UOp (Sht ) M
10        1   1  -136. N
FBAN
(NFr) O (NTo) Nc C (Vmn (Vmx Bctrl (Qini) T A (Extr
  103     609  1 D 0950 1100   103        C     103 
(G  O E (U) UOp (Sht ) M
10        1   0 -112.4 S
FBAN
(NFr) O (NTo) Nc C (Vmn (Vmx Bctrl (Qini) T A (Extr
  104      87  1 D 1000 1100   104  -136. C     104 
(G  O E (U) UOp (Sht ) M
10        1   1  -136. S
FBAN
(NFr) O (NTo) Nc C (Vmn (Vmx Bctrl (Qini) T A (Extr
 9605     104  1 D 1000 1100   104  -136. C     104 
(G  O E (U) UOp (Sht ) M
10        1   1  -136. S
FBAN
(NFr) O (NTo) Nc C (Vmn (Vmx Bctrl (Qini) T A (Extr
  104    3010  1 F 1000 1100   104  -240. C     104 
(G  O E (U) UOp (Sht ) M
10        1   1  -240. N
FBAN
(NFr) O (NTo) Nc C (Vmn (Vmx Bctrl (Qini) T A (Extr
  104    3010  2 F 1000 1100   104  -240. C     104 
(G  O E (U) UOp (Sht ) M
10        1   1  -240. N
FBAN
(NFr) O (NTo) Nc C (Vmn (Vmx Bctrl (Qini) T A (Extr
  105    9601  1 D 1000 1100   105  -136. C     105 
(G  O E (U) UOp (Sht ) M
10        1   1  -136. S
FBAN
(NFr) O (NTo) Nc C (Vmn (Vmx Bctrl (Qini) T A (Extr
 9605     106  1 D 1000 1100   106  -136. C     106 
(G  O E (U) UOp (Sht ) M
10        1   1  -136. S
FBAN
(NFr) O (NTo) Nc C (Vmn (Vmx Bctrl (Qini) T A (Extr
 9605     106  2 D 1000 1100   106  -136. C     106 
(G  O E (U) UOp (Sht ) M
10        1   1  -136. S
FBAN
(NFr) O (NTo) Nc C (Vmn (Vmx Bctrl (Qini) T A (Extr
  125     112  1 F 1000 1100   112  -136. C     112 
(G  O E (U) UOp (Sht ) M
10        1   1  -136. N
FBAN
(NFr) O (NTo) Nc C (Vmn (Vmx Bctrl (Qini) T A (Extr
  130     113  2 F 1000 1100   113  -136. C     113 
(G  O E (U) UOp (Sht ) M
10        1   1  -136. N
FBAN
(NFr) O (NTo) Nc C (Vmn (Vmx Bctrl (Qini) T A (Extr
  115    6609  1 F 1000 1100   115  -81.6 C     115 
(G  O E (U) UOp (Sht ) M
10        1   1  -81.6 N
FBAN
(NFr) O (NTo) Nc C (Vmn (Vmx Bctrl (Qini) T A (Extr
  120            D 0950 1050   120        C         
(G  O E (U) UOp (Sht ) M
10        1   0   150. S
FBAN
(NFr) O (NTo) Nc C (Vmn (Vmx Bctrl (Qini) T A (Extr
  122            D 0900 1100   122  -180. C         
(G  O E (U) UOp (Sht ) M
10        1   1  -180. S
FBAN
(NFr) O (NTo) Nc C (Vmn (Vmx Bctrl (Qini) T A (Extr
  123            D 0950 1050   123   100. C         
(G  O E (U) UOp (Sht ) M
10        2   1   100. S
FBAN
(NFr) O (NTo) Nc C (Vmn (Vmx Bctrl (Qini) T A (Extr
  125     112  1 F 1000 1100   125   -87. C     125 
(G  O E (U) UOp (Sht ) M
10        1   1   -87. N
FBAN
(NFr) O (NTo) Nc C (Vmn (Vmx Bctrl (Qini) T A (Extr
  126            D 0950 1050   126        C         
(G  O E (U) UOp (Sht ) M
10        1   0   100. S
20        1   0   150. S
FBAN
(NFr) O (NTo) Nc C (Vmn (Vmx Bctrl (Qini) T A (Extr
  130     113  2 F 1000 1100   130   -87. C     130 
(G  O E (U) UOp (Sht ) M
10        1   1   -87. N
FBAN
(NFr) O (NTo) Nc C (Vmn (Vmx Bctrl (Qini) T A (Extr
  138            D 0950 1050   138        C         
(G  O E (U) UOp (Sht ) M
10        1   0   -60. S
20        1   0  -100. S
FBAN
(NFr) O (NTo) Nc C (Vmn (Vmx Bctrl (Qini) T A (Extr
  140            D 1030 1050   140        L         
(G  O E (U) UOp (Sht ) M
10        1   0  162.5 S
20        1   0  162.5 S
FBAN
(NFr) O (NTo) Nc C (Vmn (Vmx Bctrl (Qini) T A (Extr
  147            F 0950 1050   147        C         
(G  O E (U) UOp (Sht ) M
10        2   0    60. S
FBAN
(NFr) O (NTo) Nc C (Vmn (Vmx Bctrl (Qini) T A (Extr
  147    3966  1 D 0950 1050   147   -60. C     147 
(G  O E (U) UOp (Sht ) M
10        1   1   -60. S
FBAN
(NFr) O (NTo) Nc C (Vmn (Vmx Bctrl (Qini) T A (Extr
  147    3966  2 D 0950 1050   147   -60. C     147 
(G  O E (U) UOp (Sht ) M
10        1   1   -60. S
FBAN
(NFr) O (NTo) Nc C (Vmn (Vmx Bctrl (Qini) T A (Extr
 3032     149  1 D 0950 1050   149        C     149 
(G  O E (U) UOp (Sht ) M
10        1   0   -60. S
FBAN
(NFr) O (NTo) Nc C (Vmn (Vmx Bctrl (Qini) T A (Extr
 3344     149  1 D 0950 1050   149        C     149 
(G  O E (U) UOp (Sht ) M
10        1   0   -60. S
FBAN
(NFr) O (NTo) Nc C (Vmn (Vmx Bctrl (Qini) T A (Extr
  154            D 0950 1050   154        C         
(G  O E (U) UOp (Sht ) M
10        3   0    10. S
FBAN
(NFr) O (NTo) Nc C (Vmn (Vmx Bctrl (Qini) T A (Extr
  155            D 0950 1050   155        C         
(G  O E (U) UOp (Sht ) M
10        3   0    10. S
FBAN
(NFr) O (NTo) Nc C (Vmn (Vmx Bctrl (Qini) T A (Extr
  156            D 0950 1050   156        C         
(G  O E (U) UOp (Sht ) M
10        3   0    10. S
FBAN
(NFr) O (NTo) Nc C (Vmn (Vmx Bctrl (Qini) T A (Extr
  159            D 0950 1050   159        C         
(G  O E (U) UOp (Sht ) M
10        1   0   -30. S
FBAN
(NFr) O (NTo) Nc C (Vmn (Vmx Bctrl (Qini) T A (Extr
  160            D 0950 1050   160        C         
(G  O E (U) UOp (Sht ) M
10        1   0   -30. S
FBAN
(NFr) O (NTo) Nc C (Vmn (Vmx Bctrl (Qini) T A (Extr
  163            D 0500 1300   163        C         
(G  O E (U) UOp (Sht ) M
10        2   0   -25. S
FBAN
(NFr) O (NTo) Nc C (Vmn (Vmx Bctrl (Qini) T A (Extr
  165            D 0950 1050   165   -50. C         
(G  O E (U) UOp (Sht ) M
10        2   2   -25. S
FBAN
(NFr) O (NTo) Nc C (Vmn (Vmx Bctrl (Qini) T A (Extr
  167            D 0950 1050   167        C         
(G  O E (U) UOp (Sht ) M
10    D   1   0   -30. S
FBAN
(NFr) O (NTo) Nc C (Vmn (Vmx Bctrl (Qini) T A (Extr
  169            F 0900 1100   169   250. L         
(G  O E (U) UOp (Sht ) M
10        1   1   250. S
20        1   0   250. S
FBAN
(NFr) O (NTo) Nc C (Vmn (Vmx Bctrl (Qini) T A (Extr
  170            F 0950 1050   170        C         
(G  O E (U) UOp (Sht ) M
10        1   0   150. S
FBAN
(NFr) O (NTo) Nc C (Vmn (Vmx Bctrl (Qini) T A (Extr
  174            D 0900 1100   174   150. L         
(G  O E (U) UOp (Sht ) M
10        2   2    75. S
FBAN
(NFr) O (NTo) Nc C (Vmn (Vmx Bctrl (Qini) T A (Extr
  175            F 1030 1050   175    50. L         
(G  O E (U) UOp (Sht ) M
10        1   1    50. S
20        1   0    50. S
FBAN
(NFr) O (NTo) Nc C (Vmn (Vmx Bctrl (Qini) T A (Extr
  180            D 1005 1010   180   100. L         
(G  O E (U) UOp (Sht ) M
10        1   0   100. S
20        1   1   100. S
FBAN
(NFr) O (NTo) Nc C (Vmn (Vmx Bctrl (Qini) T A (Extr
  185            D 1000 1050   185    25. L         
(G  O E (U) UOp (Sht ) M
10        1   1    25. S
FBAN
(NFr) O (NTo) Nc C (Vmn (Vmx Bctrl (Qini) T A (Extr
  194            D 0950 1050   194        C         
(G  O E (U) UOp (Sht ) M
10        1   0   -50. S
FBAN
(NFr) O (NTo) Nc C (Vmn (Vmx Bctrl (Qini) T A (Extr
  195            D 0800 1200   195        C         
(G  O E (U) UOp (Sht ) M
10        1   0   -50. S
FBAN
(NFr) O (NTo) Nc C (Vmn (Vmx Bctrl (Qini) T A (Extr
  196            D 0950 1060   196        C         
(G  O E (U) UOp (Sht ) M
10        2   0   -50. S
FBAN
(NFr) O (NTo) Nc C (Vmn (Vmx Bctrl (Qini) T A (Extr
  198            D 0950 1050   198        C         
(G  O E (U) UOp (Sht ) M
10        2   0   -50. S
FBAN
(NFr) O (NTo) Nc C (Vmn (Vmx Bctrl (Qini) T A (Extr
  199            D 0950 1050   199        C         
(G  O E (U) UOp (Sht ) M
10        3   0    10. S
FBAN
...